Version 4
SHEET 1 1080 680
WIRE 400 -144 352 -144
WIRE 352 -128 352 -144
WIRE 400 -128 400 -144
WIRE 352 32 352 -48
WIRE 80 80 64 80
WIRE 176 80 160 80
WIRE 192 80 176 80
WIRE 288 80 272 80
WIRE 64 112 64 80
WIRE 176 160 176 80
WIRE 352 176 352 128
WIRE 432 176 352 176
WIRE 352 208 352 176
WIRE 352 304 352 288
FLAG 352 304 0
FLAG 400 -128 0
FLAG 64 112 0
FLAG 432 176 Out
IOPIN 432 176 Out
FLAG 176 160 A
IOPIN 176 160 In
SYMBOL npn 288 32 R0
SYMATTR InstName Q1
SYMATTR Value 2N2222
SYMBOL voltage 352 -32 R180
WINDOW 0 24 96 Left 2
WINDOW 3 24 16 Left 2
WINDOW 123 0 0 Left 0
WINDOW 39 0 0 Left 0
SYMATTR InstName V1
SYMATTR Value 5
SYMBOL res 288 64 R90
WINDOW 0 0 56 VBottom 2
WINDOW 3 32 56 VTop 2
SYMATTR InstName R1
SYMATTR Value 10k
SYMBOL voltage 176 80 R90
WINDOW 0 -32 56 VBottom 2
WINDOW 3 -77 12 VTop 1
WINDOW 123 0 0 Left 0
WINDOW 39 0 0 Left 0
SYMATTR InstName V2
SYMATTR Value PULSE(0 5 0 0.1n 0.1n 40m 80m)
SYMBOL res 336 192 R0
SYMATTR InstName R3
SYMATTR Value 1k
TEXT 56 232 Left 2 !.tran 80m
